     528
['Generated from /home/sjaehnigen/trajectories/s-ibuprofene_CCSD-782512/']
  C         2.5610001087        4.2709999084        1.2460000515
  C         1.5349999666        3.2430000305        0.8169999719
  C        -2.9000000954        2.5109999180       11.9919996262
  C        -2.0260000229        1.4440000057       12.1759996414
  C        -1.5260000229        0.7319999933       11.0889997482
  C        -1.8980000019        1.0599999428        9.7860002518
  C        -2.7550001144        2.1500000954        9.6099996567
  C        -3.2420001030        2.8689999580       10.6879997253
  C        -1.4220000505        0.2639999986        8.5939998627
  C        -2.5050001144       15.2620000839        8.0159997940
  C        -2.0869998932        6.7909998894        6.6380000114
  C        -2.7880001068        6.1310000420        8.9510002136
  C         0.1539999992        3.8589999676        0.5970000029
  C         4.5529999733        8.2510004044       11.1470003128
  C         5.5789999962        7.2230000496       11.5760002136
  C        10.0150003433        6.4910001755        0.4020000100
  C         9.1400003433        5.4239997864        0.2169999927
  C         8.6400003433        4.7119998932        1.3040000200
  C         9.0120000839        5.0399999619        2.6080000401
  C         9.8690004349        6.1300001144        2.7829999924
  C        10.3559999466        6.8489999771        1.7059999704
  C         8.5360002518        4.2439999580        3.7990000248
  C         9.6190004349        3.3220000267        4.3769998550
  C         9.2010002136       10.7709999084        5.7560000420
  C         9.9020004272       10.1120004654        3.4419999123
  C         6.9600000381        7.8390002251       11.7959995270
  C         5.3689999580       14.6879997253        2.0950000286
  C         6.4510002136       15.6899995804        2.4409999847
  C         5.9970002174        0.5120000243        3.6989998817
  C         6.3410000801        0.0209999997        4.9569997787
  C         5.9079999924        0.6620000005        6.1059999466
  C         5.1199998856        1.8120000362        6.0460000038
  C         4.7600002289        2.2839999199        4.7829999924
  C         5.1939997673        1.6449999809        3.6289999485
  C         4.7199997902        2.5339999199        7.3099999428
  C         5.7899999619        3.5429999828        7.7800002098
  C         5.4710001945        4.0399999619        9.1870002747
  C         5.9140000343        4.7150001526        6.8179998398
  C         6.7509999275        0.6719999909        1.2469999790
  C         1.7460000515        2.7479999065       10.2980003357
  C         0.6629999876        3.7500000000        9.9519996643
  C         1.1169999838        4.4920001030        8.6949996948
  C         0.7730000019        4.0009999275        7.4359998703
  C         1.2059999704        4.6420001984        6.2870001793
  C         1.9950000048        5.7919998169        6.3470001221
  C         2.3540000916        6.2639999390        7.6100001335
  C         1.9199999571        5.6250000000        8.7639999390
  C         2.3940000534        6.5139999390        5.0830001831
  C         1.3240000010        7.5229997635        4.6129999161
  C         1.6430000067        8.0200004578        3.2060000896
  C         1.2000000477        8.6949996948        5.5749998093
  C         0.3630000055        4.6519999504       11.1459999084
  C        14.6700000763        4.2709999084        1.2460000515
  C        13.6440000534        3.2430000305        0.8169999719
  C         9.2089996338        2.5109999180       11.9919996262
  C        10.0830001831        1.4440000057       12.1759996414
  C        10.5830001831        0.7319999933       11.0889997482
  C        10.2110004425        1.0599999428        9.7860002518
  C         9.3540000916        2.1500000954        9.6099996567
  C         8.8669996262        2.8689999580       10.6879997253
  C        10.6870002747        0.2639999986        8.5939998627
  C         9.6040000916       15.2620000839        8.0159997940
  C        10.0220003128        6.7909998894        6.6380000114
  C         9.3210000992        6.1310000420        8.9510002136
  C        12.2629995346        3.8589999676        0.5970000029
  C        16.6620006561        8.2510004044       11.1470003128
  C        17.6879997253        7.2230000496       11.5760002136
  C        22.1240005493        6.4910001755        0.4020000100
  C        21.2490005493        5.4239997864        0.2169999927
  C        20.7490005493        4.7119998932        1.3040000200
  C        21.1210002899        5.0399999619        2.6080000401
  C        21.9780006409        6.1300001144        2.7829999924
  C        22.4650001526        6.8489999771        1.7059999704
  C        20.6450004578        4.2439999580        3.7990000248
  C        21.7280006409        3.3220000267        4.3769998550
  C        21.3099994659       10.7709999084        5.7560000420
  C        22.0109996796       10.1120004654        3.4419999123
  C        19.0690002441        7.8390002251       11.7959995270
  C        17.4780006409       14.6879997253        2.0950000286
  C        18.5599994659       15.6899995804        2.4409999847
  C        18.1060009003        0.5120000243        3.6989998817
  C        18.4500007629        0.0209999997        4.9569997787
  C        18.0170001984        0.6620000005        6.1059999466
  C        17.2290000916        1.8120000362        6.0460000038
  C        16.8689994812        2.2839999199        4.7829999924
  C        17.3029994965        1.6449999809        3.6289999485
  C        16.8290004730        2.5339999199        7.3099999428
  C        17.8990001678        3.5429999828        7.7800002098
  C        17.5799999237        4.0399999619        9.1870002747
  C        18.0230007172        4.7150001526        6.8179998398
  C        18.8600006104        0.6719999909        1.2469999790
  C        13.8549995422        2.7479999065       10.2980003357
  C        12.7720003128        3.7500000000        9.9519996643
  C        13.2259998322        4.4920001030        8.6949996948
  C        12.8819999695        4.0009999275        7.4359998703
  C        13.3149995804        4.6420001984        6.2870001793
  C        14.1040000916        5.7919998169        6.3470001221
  C        14.4630002975        6.2639999390        7.6100001335
  C        14.0290002823        5.6250000000        8.7639999390
  C        14.5030002594        6.5139999390        5.0830001831
  C        13.4329996109        7.5229997635        4.6129999161
  C        13.7519998550        8.0200004578        3.2060000896
  C        13.3090000153        8.6949996948        5.5749998093
  C        12.4720001221        4.6519999504       11.1459999084
  C         2.5610001087       12.2309999466        1.2460000515
  C         1.5349999666       11.2030000687        0.8169999719
  C        -2.9000000954       10.4709997177       11.9919996262
  C        -2.0260000229        9.4040002823       12.1759996414
  C        -1.5260000229        8.6920003891       11.0889997482
  C        -1.8980000019        9.0200004578        9.7860002518
  C        -2.7550001144       10.1099996567        9.6099996567
  C        -3.2420001030       10.8290004730       10.6879997253
  C        -1.4220000505        8.2239999771        8.5939998627
  C        -2.5050001144        7.3020000458        8.0159997940
  C        -2.0869998932       14.7510004044        6.6380000114
  C        -2.7880001068       14.0909996033        8.9510002136
  C         0.1539999992       11.8190002441        0.5970000029
  C         4.5529999733        0.2910000086       11.1470003128
  C         5.5789999962       15.1829996109       11.5760002136
  C        10.0150003433       14.4510002136        0.4020000100
  C         9.1400003433       13.3839998245        0.2169999927
  C         8.6400003433       12.6719999313        1.3040000200
  C         9.0120000839       13.0000000000        2.6080000401
  C         9.8690004349       14.0900001526        2.7829999924
  C        10.3559999466       14.8090000153        1.7059999704
  C         8.5360002518       12.2040004730        3.7990000248
  C         9.6190004349       11.2819995880        4.3769998550
  C         9.2010002136        2.8110001087        5.7560000420
  C         9.9020004272        2.1519999504        3.4419999123
  C         6.9600000381       15.7989997864       11.7959995270
  C         5.3689999580        6.7280001640        2.0950000286
  C         6.4510002136        7.7300000191        2.4409999847
  C         5.9970002174        8.4720001221        3.6989998817
  C         6.3410000801        7.9809999466        4.9569997787
  C         5.9079999924        8.6219997406        6.1059999466
  C         5.1199998856        9.7720003128        6.0460000038
  C         4.7600002289       10.2440004349        4.7829999924
  C         5.1939997673        9.6049995422        3.6289999485
  C         4.7199997902       10.4940004349        7.3099999428
  C         5.7899999619       11.5030002594        7.7800002098
  C         5.4710001945       12.0000000000        9.1870002747
  C         5.9140000343       12.6750001907        6.8179998398
  C         6.7509999275        8.6319999695        1.2469999790
  C         1.7460000515       10.7080001831       10.2980003357
  C         0.6629999876       11.7100000381        9.9519996643
  C         1.1169999838       12.4519996643        8.6949996948
  C         0.7730000019       11.9610004425        7.4359998703
  C         1.2059999704       12.6020002365        6.2870001793
  C         1.9950000048       13.7519998550        6.3470001221
  C         2.3540000916       14.2239999771        7.6100001335
  C         1.9199999571       13.5850000381        8.7639999390
  C         2.3940000534       14.4739999771        5.0830001831
  C         1.3240000010       15.4829998016        4.6129999161
  C         1.6430000067        0.0599999987        3.2060000896
  C         1.2000000477        0.7350000143        5.5749998093
  C         0.3630000055       12.6120004654       11.1459999084
  C        14.6700000763       12.2309999466        1.2460000515
  C        13.6440000534       11.2030000687        0.8169999719
  C         9.2089996338       10.4709997177       11.9919996262
  C        10.0830001831        9.4040002823       12.1759996414
  C        10.5830001831        8.6920003891       11.0889997482
  C        10.2110004425        9.0200004578        9.7860002518
  C         9.3540000916       10.1099996567        9.6099996567
  C         8.8669996262       10.8290004730       10.6879997253
  C        10.6870002747        8.2239999771        8.5939998627
  C         9.6040000916        7.3020000458        8.0159997940
  C        10.0220003128       14.7510004044        6.6380000114
  C         9.3210000992       14.0909996033        8.9510002136
  C        12.2629995346       11.8190002441        0.5970000029
  C        16.6620006561        0.2910000086       11.1470003128
  C        17.6879997253       15.1829996109       11.5760002136
  C        22.1240005493       14.4510002136        0.4020000100
  C        21.2490005493       13.3839998245        0.2169999927
  C        20.7490005493       12.6719999313        1.3040000200
  C        21.1210002899       13.0000000000        2.6080000401
  C        21.9780006409       14.0900001526        2.7829999924
  C        22.4650001526       14.8090000153        1.7059999704
  C        20.6450004578       12.2040004730        3.7990000248
  C        21.7280006409       11.2819995880        4.3769998550
  C        21.3099994659        2.8110001087        5.7560000420
  C        22.0109996796        2.1519999504        3.4419999123
  C        19.0690002441       15.7989997864       11.7959995270
  C        17.4780006409        6.7280001640        2.0950000286
  C        18.5599994659        7.7300000191        2.4409999847
  C        18.1060009003        8.4720001221        3.6989998817
  C        18.4500007629        7.9809999466        4.9569997787
  C        18.0170001984        8.6219997406        6.1059999466
  C        17.2290000916        9.7720003128        6.0460000038
  C        16.8689994812       10.2440004349        4.7829999924
  C        17.3029994965        9.6049995422        3.6289999485
  C        16.8290004730       10.4940004349        7.3099999428
  C        17.8990001678       11.5030002594        7.7800002098
  C        17.5799999237       12.0000000000        9.1870002747
  C        18.0230007172       12.6750001907        6.8179998398
  C        18.8600006104        8.6319999695        1.2469999790
  C        13.8549995422       10.7080001831       10.2980003357
  C        12.7720003128       11.7100000381        9.9519996643
  C        13.2259998322       12.4519996643        8.6949996948
  C        12.8819999695       11.9610004425        7.4359998703
  C        13.3149995804       12.6020002365        6.2870001793
  C        14.1040000916       13.7519998550        6.3470001221
  C        14.4630002975       14.2239999771        7.6100001335
  C        14.0290002823       13.5850000381        8.7639999390
  C        14.5030002594       14.4739999771        5.0830001831
  C        13.4329996109       15.4829998016        4.6129999161
  C        13.7519998550        0.0599999987        3.2060000896
  C        13.3090000153        0.7350000143        5.5749998093
  C        12.4720001221       12.6120004654       11.1459999084
  H         3.2590000629        5.9539999962        0.8679999709
  H         1.4520000219        2.5750000477        1.5570000410
  H         3.2269999981        1.1979999542        0.6629999876
  H        -0.9229999781        0.0140000004       11.2370004654
  H        -3.0090000629        2.4040000439        8.7299995422
  H        -3.8139998913        3.6119999886       10.5380001068
  H        -0.6430000067       15.6359996796        8.8640003204
  H        -1.1219999790        0.8899999857        7.8880000114
  H        20.8710002899       15.7919998169        7.9130001068
  H        -1.9700000286       15.5109996796        6.0289998055
  H        21.4389991760        6.1939997673        6.2859997749
  H        -1.2410000563        6.3010001183        6.7129998207
  H        20.6650009155        5.6199998856        8.6120004654
  H        -2.9920001030        6.4710001945        9.8459997177
  H        -2.0000000000        5.5500001907        8.9940004349
  H        23.7450008392        3.1610000134        0.3149999976
  H        -4.7849998474        4.5479998589       12.2959995270
  H        -0.1609999985        4.2620000839        1.4329999685
  H         3.8550000191        9.9340000153       11.5260000229
  H         5.6620001793        6.5549998283       10.8369998932
  H         3.8870000839        5.1779999733       11.7299995422
  H         8.0369997025        3.9930000305        1.1560000181
  H        10.1230001450        6.3839998245        3.6630001068
  H        10.9280004501        7.5920000076        1.8550000191
  H         7.7569999695        3.6960000992        3.5299999714
  H         8.2360000610        4.8699998856        4.5050001144
  H        10.4610004425        3.8519999981        4.4800000191
  H         9.0839996338        3.5710000992        6.3639998436
  H         9.8929996490       10.1739997864        6.1069998741
  H         8.3549995422       10.2810001373        5.6799998283
  H        10.6669998169        9.6009998322        3.7809998989
  H        10.1070003510       10.4510002136        2.5469999313
  H         9.1140003204        9.5299997330        3.3989999294
  H         7.5869998932        7.1409997940       12.0780000687
  H        11.8990001678        8.5279998779        0.0970000029
  H         7.2750000954        8.2419996262       10.9600000381
  H         4.7129998207        5.1339998245        2.5780000687
  H         7.2839999199       15.1829996109        2.6649999619
  H         6.8779997826       15.1599998474        5.0269999504
  H         6.1529998779        0.3109999895        6.9539999962
  H         4.2090001106        3.0529999733        4.7119998932
  H         4.9400000572        1.9880000353        2.7799999714
  H         4.5650000572        1.8700000048        8.0270004272
  H         3.8689999580        3.0150001049        7.1529998779
  H         6.6719999313        3.0710000992        7.8090000153
  H         5.4380002022        3.2780001163        9.8030004501
  H         4.6030001640        4.4939999580        9.1829996109
  H         6.1659998894        4.6649999619        9.4779996872
  H         6.1430001259        4.3829998970        5.9250001907
  H         6.6170001030        5.3220000267        7.1310000420
  H         5.0609998703        5.1970000267        6.7789998055
  H         7.4489998817        1.3150000572        1.4910000563
  H         5.9380002022        1.1540000439        0.9890000224
  H         7.0590000153        0.1250000000        0.4939999878
  H         2.4010000229        9.1140003204        9.8149995804
  H        -0.1700000018        3.2430000305        9.7290000916
  H         0.2360000014        3.2200000286        7.3660001755
  H         0.9610000253        4.2909998894        5.4390001297
  H         2.9049999714        7.0329999924        7.6810002327
  H         2.1740000248        5.9670000076        9.6129999161
  H         2.5490000248        5.8499999046        4.3660001755
  H         3.2449998856        6.9949998856        5.2399997711
  H         0.4420000017        7.0510001183        4.5840001106
  H         1.6759999990        7.2579998970        2.5899999142
  H         2.5109999180        8.4739999771        3.2100000381
  H         0.9480000138        8.6450004578        2.9149999619
  H         0.9710000157        8.3629999161        6.4679999352
  H         0.4970000088        9.3020000458        5.2620000839
  H         2.0529999733        9.1770000458        5.6139998436
  H        -0.3350000083        5.2950000763       10.9020004272
  H         1.1759999990        5.1339998245       11.4040002823
  H         0.0549999997        4.1050000191       11.8990001678
  H        15.3680000305        5.9539999962        0.8679999709
  H        13.5609998703        2.5750000477        1.5570000410
  H        15.3360004425        1.1979999542        0.6629999876
  H        11.1859998703        0.0140000004       11.2370004654
  H         9.1000003815        2.4040000439        8.7299995422
  H         8.2950000763        3.6119999886       10.5380001068
  H        11.4659996033       15.6359996796        8.8640003204
  H        10.9870004654        0.8899999857        7.8880000114
  H         8.7620000839       15.7919998169        7.9130001068
  H        10.1389999390       15.5109996796        6.0289998055
  H         9.3299999237        6.1939997673        6.2859997749
  H        10.8680000305        6.3010001183        6.7129998207
  H         8.5559997559        5.6199998856        8.6120004654
  H         9.1169996262        6.4710001945        9.8459997177
  H        10.1090002060        5.5500001907        8.9940004349
  H        11.6359996796        3.1610000134        0.3149999976
  H         7.3239998817        4.5479998589       12.2959995270
  H        11.9479999542        4.2620000839        1.4329999685
  H        15.9639997482        9.9340000153       11.5260000229
  H        17.7709999084        6.5549998283       10.8369998932
  H        15.9960002899        5.1779999733       11.7299995422
  H        20.1459999084        3.9930000305        1.1560000181
  H        22.2320003510        6.3839998245        3.6630001068
  H        23.0370006561        7.5920000076        1.8550000191
  H        19.8659992218        3.6960000992        3.5299999714
  H        20.3449993134        4.8699998856        4.5050001144
  H        -1.6480000019        3.8519999981        4.4800000191
  H        21.1930007935        3.5710000992        6.3639998436
  H        -2.2160000801       10.1739997864        6.1069998741
  H        20.4640007019       10.2810001373        5.6799998283
  H        -1.4420000315        9.6009998322        3.7809998989
  H        22.2159996033       10.4510002136        2.5469999313
  H        21.2229995728        9.5299997330        3.3989999294
  H        -4.5219998360        7.1409997940       12.0780000687
  H        24.0079994202        8.5279998779        0.0970000029
  H        19.3840007782        8.2419996262       10.9600000381
  H        16.8220005035        5.1339998245        2.5780000687
  H        19.3929996490       15.1829996109        2.6649999619
  H        18.9869995117       15.1599998474        5.0269999504
  H        18.2619991302        0.3109999895        6.9539999962
  H        16.3180007935        3.0529999733        4.7119998932
  H        17.0489997864        1.9880000353        2.7799999714
  H        16.6739997864        1.8700000048        8.0270004272
  H        15.9779996872        3.0150001049        7.1529998779
  H        18.7810001373        3.0710000992        7.8090000153
  H        17.5470008850        3.2780001163        9.8030004501
  H        16.7119998932        4.4939999580        9.1829996109
  H        18.2749996185        4.6649999619        9.4779996872
  H        18.2520008087        4.3829998970        5.9250001907
  H        18.7259998322        5.3220000267        7.1310000420
  H        17.1700000763        5.1970000267        6.7789998055
  H        19.5580005646        1.3150000572        1.4910000563
  H        18.0470008850        1.1540000439        0.9890000224
  H        19.1679992676        0.1250000000        0.4939999878
  H        14.5100002289        9.1140003204        9.8149995804
  H        11.9390001297        3.2430000305        9.7290000916
  H        12.3450002670        3.2200000286        7.3660001755
  H        13.0699996948        4.2909998894        5.4390001297
  H        15.0139999390        7.0329999924        7.6810002327
  H        14.2829999924        5.9670000076        9.6129999161
  H        14.6579999924        5.8499999046        4.3660001755
  H        15.3540000916        6.9949998856        5.2399997711
  H        12.5509996414        7.0510001183        4.5840001106
  H        13.7849998474        7.2579998970        2.5899999142
  H        14.6199998856        8.4739999771        3.2100000381
  H        13.0570001602        8.6450004578        2.9149999619
  H        13.0799999237        8.3629999161        6.4679999352
  H        12.6059999466        9.3020000458        5.2620000839
  H        14.1619997025        9.1770000458        5.6139998436
  H        11.7740001678        5.2950000763       10.9020004272
  H        13.2849998474        5.1339998245       11.4040002823
  H        12.1639995575        4.1050000191       11.8990001678
  H         3.2590000629       13.9139995575        0.8679999709
  H         1.4520000219       10.5349998474        1.5570000410
  H         3.2269999981        9.1579999924        0.6629999876
  H        -0.9229999781        7.9739999771       11.2370004654
  H        -3.0090000629       10.3640003204        8.7299995422
  H        -3.8139998913       11.5719995499       10.5380001068
  H        -0.6430000067        7.6760001183        8.8640003204
  H        -1.1219999790        8.8500003815        7.8880000114
  H        20.8710002899        7.8319997787        7.9130001068
  H        -1.9700000286        7.5510001183        6.0289998055
  H        21.4389991760       14.1540002823        6.2859997749
  H        -1.2410000563       14.2609996796        6.7129998207
  H        20.6650009155       13.5799999237        8.6120004654
  H        -2.9920001030       14.4309997559        9.8459997177
  H        -2.0000000000       13.5100002289        8.9940004349
  H        23.7450008392       11.1210002899        0.3149999976
  H        -4.7849998474       12.5080003738       12.2959995270
  H        -0.1609999985       12.2220001221        1.4329999685
  H         3.8550000191        1.9739999771       11.5260000229
  H         5.6620001793       14.5150003433       10.8369998932
  H         3.8870000839       13.1379995346       11.7299995422
  H         8.0369997025       11.9530000687        1.1560000181
  H        10.1230001450       14.3439998627        3.6630001068
  H        10.9280004501       15.5520000458        1.8550000191
  H         7.7569999695       11.6560001373        3.5299999714
  H         8.2360000610       12.8299999237        4.5050001144
  H        10.4610004425       11.8120002747        4.4800000191
  H         9.0839996338       11.5310001373        6.3639998436
  H         9.8929996490        2.2139999866        6.1069998741
  H         8.3549995422        2.3210000992        5.6799998283
  H        10.6669998169        1.6410000324        3.7809998989
  H        10.1070003510        2.4909999371        2.5469999313
  H         9.1140003204        1.5700000525        3.3989999294
  H         7.5869998932       15.1009998322       12.0780000687
  H        11.8990001678        0.5680000186        0.0970000029
  H         7.2750000954        0.2820000052       10.9600000381
  H         4.7129998207       13.0939998627        2.5780000687
  H         7.2839999199        7.2230000496        2.6649999619
  H         6.8779997826        7.1999998093        5.0269999504
  H         6.1529998779        8.2709999084        6.9539999962
  H         4.2090001106       11.0129995346        4.7119998932
  H         4.9400000572        9.9479999542        2.7799999714
  H         4.5650000572        9.8299999237        8.0270004272
  H         3.8689999580       10.9750003815        7.1529998779
  H         6.6719999313       11.0310001373        7.8090000153
  H         5.4380002022       11.2379999161        9.8030004501
  H         4.6030001640       12.4540004730        9.1829996109
  H         6.1659998894       12.6250000000        9.4779996872
  H         6.1430001259       12.3430004120        5.9250001907
  H         6.6170001030       13.2819995880        7.1310000420
  H         5.0609998703       13.1569995880        6.7789998055
  H         7.4489998817        9.2749996185        1.4910000563
  H         5.9380002022        9.1140003204        0.9890000224
  H         7.0590000153        8.0850000381        0.4939999878
  H         2.4010000229        1.1540000439        9.8149995804
  H        -0.1700000018       11.2030000687        9.7290000916
  H         0.2360000014       11.1800003052        7.3660001755
  H         0.9610000253       12.2510004044        5.4390001297
  H         2.9049999714       14.9930000305        7.6810002327
  H         2.1740000248       13.9270000458        9.6129999161
  H         2.5490000248       13.8100004196        4.3660001755
  H         3.2449998856       14.9549999237        5.2399997711
  H         0.4420000017       15.0109996796        4.5840001106
  H         1.6759999990       15.2180004120        2.5899999142
  H         2.5109999180        0.5139999986        3.2100000381
  H         0.9480000138        0.6850000024        2.9149999619
  H         0.9710000157        0.4029999971        6.4679999352
  H         0.4970000088        1.3420000076        5.2620000839
  H         2.0529999733        1.2170000076        5.6139998436
  H        -0.3350000083       13.2550001144       10.9020004272
  H         1.1759999990       13.0939998627       11.4040002823
  H         0.0549999997       12.0649995804       11.8990001678
  H        15.3680000305       13.9139995575        0.8679999709
  H        13.5609998703       10.5349998474        1.5570000410
  H        15.3360004425        9.1579999924        0.6629999876
  H        11.1859998703        7.9739999771       11.2370004654
  H         9.1000003815       10.3640003204        8.7299995422
  H         8.2950000763       11.5719995499       10.5380001068
  H        11.4659996033        7.6760001183        8.8640003204
  H        10.9870004654        8.8500003815        7.8880000114
  H         8.7620000839        7.8319997787        7.9130001068
  H        10.1389999390        7.5510001183        6.0289998055
  H         9.3299999237       14.1540002823        6.2859997749
  H        10.8680000305       14.2609996796        6.7129998207
  H         8.5559997559       13.5799999237        8.6120004654
  H         9.1169996262       14.4309997559        9.8459997177
  H        10.1090002060       13.5100002289        8.9940004349
  H        11.6359996796       11.1210002899        0.3149999976
  H         7.3239998817       12.5080003738       12.2959995270
  H        11.9479999542       12.2220001221        1.4329999685
  H        15.9639997482        1.9739999771       11.5260000229
  H        17.7709999084       14.5150003433       10.8369998932
  H        15.9960002899       13.1379995346       11.7299995422
  H        20.1459999084       11.9530000687        1.1560000181
  H        22.2320003510       14.3439998627        3.6630001068
  H        23.0370006561       15.5520000458        1.8550000191
  H        19.8659992218       11.6560001373        3.5299999714
  H        20.3449993134       12.8299999237        4.5050001144
  H        -1.6480000019       11.8120002747        4.4800000191
  H        21.1930007935       11.5310001373        6.3639998436
  H        -2.2160000801        2.2139999866        6.1069998741
  H        20.4640007019        2.3210000992        5.6799998283
  H        -1.4420000315        1.6410000324        3.7809998989
  H        22.2159996033        2.4909999371        2.5469999313
  H        21.2229995728        1.5700000525        3.3989999294
  H        -4.5219998360       15.1009998322       12.0780000687
  H        24.0079994202        0.5680000186        0.0970000029
  H        19.3840007782        0.2820000052       10.9600000381
  H        16.8220005035       13.0939998627        2.5780000687
  H        19.3929996490        7.2230000496        2.6649999619
  H        18.9869995117        7.1999998093        5.0269999504
  H        18.2619991302        8.2709999084        6.9539999962
  H        16.3180007935       11.0129995346        4.7119998932
  H        17.0489997864        9.9479999542        2.7799999714
  H        16.6739997864        9.8299999237        8.0270004272
  H        15.9779996872       10.9750003815        7.1529998779
  H        18.7810001373       11.0310001373        7.8090000153
  H        17.5470008850       11.2379999161        9.8030004501
  H        16.7119998932       12.4540004730        9.1829996109
  H        18.2749996185       12.6250000000        9.4779996872
  H        18.2520008087       12.3430004120        5.9250001907
  H        18.7259998322       13.2819995880        7.1310000420
  H        17.1700000763       13.1569995880        6.7789998055
  H        19.5580005646        9.2749996185        1.4910000563
  H        18.0470008850        9.1140003204        0.9890000224
  H        19.1679992676        8.0850000381        0.4939999878
  H        14.5100002289        1.1540000439        9.8149995804
  H        11.9390001297       11.2030000687        9.7290000916
  H        12.3450002670       11.1800003052        7.3660001755
  H        13.0699996948       12.2510004044        5.4390001297
  H        15.0139999390       14.9930000305        7.6810002327
  H        14.2829999924       13.9270000458        9.6129999161
  H        14.6579999924       13.8100004196        4.3660001755
  H        15.3540000916       14.9549999237        5.2399997711
  H        12.5509996414       15.0109996796        4.5840001106
  H        13.7849998474       15.2180004120        2.5899999142
  H        14.6199998856        0.5139999986        3.2100000381
  H        13.0570001602        0.6850000024        2.9149999619
  H        13.0799999237        0.4029999971        6.4679999352
  H        12.6059999466        1.3420000076        5.2620000839
  H        14.1619997025        1.2170000076        5.6139998436
  H        11.7740001678       13.2550001144       10.9020004272
  H        13.2849998474       13.0939998627       11.4040002823
  H        12.1639995575       12.0649995804       11.8990001678
  O         3.3870000839        4.0460000038        2.1159999371
  O         2.5069999695        5.4029998779        0.5780000091
  O         3.7279999256        8.0260000229       10.2770004272
  O         4.6069998741        9.3830003738       11.8149995804
  O         5.4140000343        5.6220002174        2.8059999943
  O         4.5170001984       14.9079999924        1.2500000000
  O         1.7000000477        9.6020002365        9.5869998932
  O         2.5980000496        2.9679999352       11.1429996490
  O        15.4960002899        4.0460000038        2.1159999371
  O        14.6160001755        5.4029998779        0.5780000091
  O        15.8369998932        8.0260000229       10.2770004272
  O        16.7159996033        9.3830003738       11.8149995804
  O        17.5230007172        5.6220002174        2.8059999943
  O        16.6259994507       14.9079999924        1.2500000000
  O        13.8090000153        9.6020002365        9.5869998932
  O        14.7069997787        2.9679999352       11.1429996490
  O         3.3870000839       12.0059995651        2.1159999371
  O         2.5069999695       13.3629999161        0.5780000091
  O         3.7279999256        0.0659999996       10.2770004272
  O         4.6069998741        1.4229999781       11.8149995804
  O         5.4140000343       13.5819997787        2.8059999943
  O         4.5170001984        6.9479999542        1.2500000000
  O         1.7000000477        1.6419999599        9.5869998932
  O         2.5980000496       10.9280004501       11.1429996490
  O        15.4960002899       12.0059995651        2.1159999371
  O        14.6160001755       13.3629999161        0.5780000091
  O        15.8369998932        0.0659999996       10.2770004272
  O        16.7159996033        1.4229999781       11.8149995804
  O        17.5230007172       13.5819997787        2.8059999943
  O        16.6259994507        6.9479999542        1.2500000000
  O        13.8090000153        1.6419999599        9.5869998932
  O        14.7069997787       10.9280004501       11.1429996490
