1
 i = 0
C 0.0 0.0 0.0
1
 i = 1
C 0.0 0.0 0.0
1
 i = 2
C 0.0 0.0 0.0
1
 i = 3
C 0.0 0.0 0.0
1
 i = 4
C 0.0 0.0 0.0
1
 i = 5
C 0.0 0.0 0.0
1
 i = 6
C 0.0 0.0 0.0
1
 i = 7
C 0.0 0.0 0.0
1
 i = 8
C 0.0 0.0 0.0
1
 i = 5 doublet
C 0.0 0.0 0.0
1
 i = 6 doublet
C 0.0 0.0 0.0
1
 i = 7 doublet
C 0.0 0.0 0.0
1
 i = 8 doublet
C 0.0 0.0 0.0
1
 i = 9
C 0.0 0.0 0.0
1
 i = 10
C 0.0 0.0 0.0
1
 i = 11
C 0.0 0.0 0.0
