       3
Water i = 0
  O         0.0026910000        0.0000000000        0.0030380000        0.0001230553        0.0000000000        0.0001304169
  H        -0.0234560000        0.0000000000        0.9282300000       -0.0011517485        0.0000000000       -0.0010919091
  H         0.9073800000        0.0000000000       -0.2592320000       -0.0008008991        0.0000000000       -0.0009775511
       3
Water i = 1
  O         0.0051150000        0.0000000000        0.0053200000        0.0000952570        0.0000000000        0.0000731246
  H        -0.0488040000        0.0000000000        0.9145310000       -0.0011489419        0.0000000000       -0.0000954262
  H         0.8942650000        0.0000000000       -0.2817420000       -0.0003626005        0.0000000000       -0.0010649172
       3
Water i = 2
  O         0.0067700000        0.0000000000        0.0060830000        0.0000566643        0.0000000000        0.0000060150
  H        -0.0734520000        0.0000000000        0.9263630000       -0.0010541159        0.0000000000        0.0009673715
  H         0.8926470000        0.0000000000       -0.3056690000        0.0001549643        0.0000000000       -0.0010628145
       3
Water i = 3
  O         0.0076270000        0.0000000000        0.0056730000        0.0000259969        0.0000000000       -0.0000315454
  H        -0.0951250000        0.0000000000        0.9555190000       -0.0009035233        0.0000000000        0.0014745820
  H         0.9007190000        0.0000000000       -0.3283290000        0.0004910017        0.0000000000       -0.0009740132
       3
Water i = 4
  O         0.0079640000        0.0000000000        0.0049130000        0.0000080883        0.0000000000       -0.0000303928
  H        -0.1122710000        0.0000000000        0.9866280000       -0.0006189265        0.0000000000        0.0011862552
  H         0.9125270000        0.0000000000       -0.3473670000        0.0004905811        0.0000000000       -0.0007039796
       3
Water i = 5
  O         0.0080610000        0.0000000000        0.0044800000        0.0000021970        0.0000000000       -0.0000074475
  H        -0.1222230000        0.0000000000        1.0051000000       -0.0002635683        0.0000000000        0.0004355039
  H         0.9209380000        0.0000000000       -0.3589790000        0.0002287064        0.0000000000       -0.0003173259
       3
Water i = 6
  O         0.0081110000        0.0000000000        0.0046440000        0.0000016241        0.0000000000        0.0000185458
  H        -0.1239870000        0.0000000000        1.0048510000        0.0000889321        0.0000000000       -0.0003823584
  H         0.9219110000        0.0000000000       -0.3613370000       -0.0001147036        0.0000000000        0.0000880728
       3
Water i = 7
  O         0.0081430000        0.0000000000        0.0053250000       -0.0000009255        0.0000000000        0.0000369537
  H        -0.1181120000        0.0000000000        0.9875630000        0.0004145887        0.0000000000       -0.0010480593
  H         0.9155290000        0.0000000000       -0.3548530000       -0.0003999033        0.0000000000        0.0004616785
       3
Water i = 8
  O         0.0080390000        0.0000000000        0.0062230000       -0.0000117657        0.0000000000        0.0000360947
  H        -0.1056230000        0.0000000000        0.9594110000        0.0006917795        0.0000000000       -0.0013345988
  H         0.9046910000        0.0000000000       -0.3409530000       -0.0005050804        0.0000000000        0.0007618488
       3
Water i = 9
  O         0.0075640000        0.0000000000        0.0067690000       -0.0000338007        0.0000000000        0.0000043125
  H        -0.0880010000        0.0000000000        0.9316350000        0.0008647153        0.0000000000       -0.0009858018
  H         0.8946000000        0.0000000000       -0.3218380000       -0.0003283640        0.0000000000        0.0009173690
