     208
passed
  C         0.1840000004       10.1859998703        4.9340000153
  C         0.1439999938       10.3059997559       10.6409997940
  C         0.6200000048        4.5630002022        2.4800000191
  C         0.2590000033        4.5850000381        8.2139997482
  C         1.4040000439       11.1269998550        4.5399999619
  C         1.4880000353       11.2250003815       10.5659999847
  C         1.6280000210        0.7649999857        1.6100000143
  C         1.3980000019        1.0030000210        7.5260000229
  C         2.7530000210        8.0329999924        5.2170000076
  C         2.6140000820        7.8880000114       11.0190000534
  C         2.6770000458        1.7730000019        2.0339999199
  C         2.6280000210        1.9040000439        7.9109997749
  C         3.2679998875        8.1730003357        0.8629999757
  C         3.2569999695        8.3549995422        6.6030001640
  C         3.3689999580        1.6449999809        3.3949999809
  C         3.1449999809        1.7610000372        9.3629999161
  C         4.5760002136        7.3359999657        1.1130000353
  C         4.4159998894        7.4010000229        6.9299998283
  C         4.9340000153        5.1719999313        4.0229997635
  C         4.4400000572        5.2179999352        9.6319999695
  C         5.4800000191       10.8280000687        0.7530000210
  C         5.6240000725       10.8000001907        6.4470000267
  C         6.0830001831        4.2199997902        3.7000000477
  C         5.5609998703        4.1999998093        9.5579996109
  C         6.1079998016       10.5430002213        5.0980000496
  C         6.0430002213       10.5860004425       10.8470001221
  C         6.5040001869        4.4530000687        2.2149999142
  C         6.0700001717        4.2109999657        8.0310001373
  C         7.4629998207       11.3210000992        4.7829999924
  C         7.3049998283       11.4580001831       10.5559997559
  C         7.8470001221        0.9679999948        1.8339999914
  C         7.7979998589        0.8249999881        7.7280001640
  C         8.6400003433        7.8889999390        4.9829998016
  C         8.8500003815        7.8260002136       10.7690000534
  C         9.1239995956        1.8810000420        2.0980000496
  C         8.8360004425        1.9259999990        7.9539999962
  C         9.3739995956        7.9250001907        0.7080000043
  C         9.2959995270        7.9559998512        6.3590002060
  C         9.7600002289        1.6990000010        3.4630000591
  C         9.3020000458        1.7630000114        9.3950004578
  C        10.5240001678        7.0650000572        1.0169999599
  C        10.7060003281        7.1890001297        6.5980000496
  C        10.6610002518        4.9359998703        4.0289998055
  C        10.6750001907        4.9260001183       10.0299997330
  C        11.6319999695       10.3050003052        0.4530000091
  C        11.7829999924       10.5600004196        6.3189997673
  C        11.9209995270        4.1750001907        3.7560000420
  C        11.9280004501        4.3060002327        9.6450004578
  H         0.4810000062        9.1529998779        4.8319997787
  H         0.3510000110        9.2799997330       10.3730001450
  H         0.3720000088        4.2350001335        5.8049998283
  H         0.7070000172        4.6250000000        0.0280000009
  H         0.8149999976        0.6439999938        2.2909998894
  H         0.4749999940        1.3639999628        8.0200004578
  H         1.1189999580       12.1520004272        4.2859997749
  H         1.1779999733       12.2620000839       10.5380001068
  H         1.1759999990        5.3189997673        4.7859997749
  H         1.1119999886        5.8979997635       10.4060001373
  H         1.2439999580        1.2339999676        0.6309999824
  H         1.3179999590        1.3279999495        6.5079998970
  H         1.3919999599        8.6979999542        1.7630000114
  H         1.3980000019        8.8549995422        7.3829998970
  H         1.7029999495        3.7669999599        4.7750000954
  H         1.7680000067        4.2760000229       10.2609996796
  H         1.9630000591       10.6780004501        3.6889998913
  H         1.9170000553       11.0579996109        9.6140003204
  H         1.9850000143        7.0529999733        2.0590000153
  H         1.8279999495        7.2300000191        7.8730001450
  H         2.0510001183       12.0860004425        1.4459999800
  H         1.6879999638       12.2259998322        7.4510002136
  H         2.1949999332       11.1630001068        5.3189997673
  H         2.2460000515       10.9910001755       11.3269996643
  H         2.6170001030        8.2829999924        2.9040000439
  H         2.5590000153        8.3940000534        8.6160001755
  H         2.2599999905        2.7739999294        1.8919999599
  H         2.4219999313        3.0220000744        7.7969999313
  H         3.5590000153        9.2659997940        0.8690000176
  H         3.4670000076        9.4379997253        6.6649999619
  H         3.4890000820        2.1070001125        0.1319999993
  H         3.2530000210        1.7130000591        5.9120001793
  H         4.0869998932        4.8769998550        3.3350000381
  H         3.6019999981        4.9910001755        9.0089998245
  H         4.2829999924        6.2680001259        1.1640000343
  H         4.1420001984        6.3210000992        6.9140000343
  H         4.2340002060        0.9430000186        0.9750000238
  H         4.1690001488        0.7549999952        7.0349998474
  H         4.5539999008        5.0970001221        5.0469999313
  H         3.9719998837        5.2890000343       10.6389999390
  H         4.3010001183       10.0889997482        4.2800002098
  H         4.1970000267       10.0889997482        9.9379997253
  H         4.5500001907        2.4990000725        1.3009999990
  H         4.3860001564        2.4530000687        7.0060000420
  H         5.0469999313        7.7680001259        2.0460000038
  H         4.9200000763        7.7750000954        7.8569998741
  H         4.7719998360       11.7559995651        3.8399999142
  H         4.5590000153       11.7360000610        9.7250003815
  H         5.3169999123        6.1779999733        3.8570001125
  H         4.8489999771        6.1649999619        9.3249998093
  H         5.1869997978        7.5040001869        0.2569999993
  H         5.0970001221        7.5419998169        6.1290001869
  H         5.4140000343       10.3090000153        3.0859999657
  H         5.2950000763       10.4989995956        8.8020000458
  H         5.6859998703        3.1979999542        3.8280000687
  H         5.1589999199        3.1960000992        9.8319997787
  H         6.3740000725        9.4729995728        5.1050000191
  H         6.3109998703        9.5249996185       10.9460000992
  H         6.7480001450        4.3499999046        5.6739997864
  H         6.2270002365        4.4600000381       11.5469999313
  H         7.0819997787        1.3229999542        2.5599999428
  H         6.9869999886        1.0130000114        8.4540004730
  H         7.3990001678        0.0869999975        4.8010001183
  H         8.0710000992       11.0719995499       11.3009996414
  H         7.4539999962        5.5159997940        4.7319998741
  H         7.0120000839        5.5689997673       10.4090003967
  H         7.4720001221        1.0149999857        0.8719999790
  H         7.2870001793        0.8410000205        6.7230000496
  H         7.3790001869        8.2860002518        1.3020000458
  H         7.5029997826        8.3409996033        7.4990000725
  H         7.9130001068        3.7880001068        4.6779999733
  H         7.4349999428        3.9260001183       10.4890003204
  H         7.7030000687       10.9860000610        3.7569999695
  H         7.1810002327        0.1720000058       10.6459999084
  H         7.9260001183        6.7709999084        1.8250000477
  H         7.8819999695        6.6290001869        7.6069998741
  H         8.1370000839       12.2700004578        1.9809999466
  H         8.1649999619       12.2110004425        7.9439997673
  H         8.2690000534       11.0290002823        5.3889999390
  H         7.6329998970       11.1890001297        9.5690002441
  H         8.4010000229        8.2559995651        2.5350000858
  H         8.7629995346        7.7220001221        8.4960002899
  H         8.9729995728        2.9409999847        1.8799999952
  H         8.4399995804        2.9249999523        7.6459999084
  H         9.5970001221        9.0819997787        0.8109999895
  H         9.5620002747        9.0089998245        6.6420001984
  H         9.7969999313        1.8140000105        0.1169999987
  H         9.7460002899        1.8839999437        6.0780000687
  H        10.0220003128        4.7909998894        3.1779999733
  H         9.8900003433        4.5170001984        9.4160003662
  H        10.2130002975        6.0100002289        1.1649999619
  H        10.6490001678        6.0840001106        6.4959998131
  H        10.4359998703        0.5870000124        1.0709999800
  H        10.5290002823        0.8299999833        7.2039999962
  H        10.1759996414        4.4520001411        4.8750000000
  H        10.4820003510        4.8420000076       11.0609998703
  H        10.4139995575        9.7600002289        3.9920001030
  H        10.4490003586       10.2290000916        9.5039997101
  H        11.0190000534        2.1989998817        1.2719999552
  H        10.7930002213        2.5099999905        7.3049998283
  H        11.0629997253        7.3109998703        1.9830000401
  H        10.9350004196        7.4340000153        7.6360001564
  H        10.6920003891       11.3819999695        4.1189999580
  H        10.9250001907       11.7760000229        9.8690004349
  H        10.7430000305        6.0040001869        4.3299999237
  H        10.6920003891        5.9770002365        9.8360004425
  H        11.3159999847        7.1550002098        0.2080000043
  H        11.4949998856        7.6079998016        5.9580001831
  H        11.5620002747       10.3640003204        2.9170000553
  H        11.7259998322       10.8210000992        8.6260004044
  H        11.7410001755        3.1180000305        3.7550001144
  H        11.8459997177        3.1970000267        9.7580003738
  N         0.8569999933        4.3550000191        4.8829998970
  N         0.9150000215        4.8220000267       10.5000000000
  N         2.2290000916        8.0200004578        1.9329999685
  N         2.1129999161        8.1969995499        7.6160001755
  N         3.7839999199        1.8550000191        1.0559999943
  N         3.6770000458        1.6490000486        6.8750000000
  N         5.0859999657       10.7519998550        3.9990000725
  N         4.9559998512       10.7040004730        9.7410001755
  N         7.1840000153        4.4809999466        4.7519998550
  N         6.6529998779        4.6069998741       10.5590000153
  N         8.1800003052        7.7760000229        1.6419999599
  N         8.2939996719        7.6230001450        7.5399999619
  N        10.1850004196        1.5590000153        1.0559999943
  N        10.0609998703        1.7289999723        7.0809998512
  N        11.1599998474       10.4849996567        3.9149999619
  N        11.2740001678       10.8450002670        9.5979995728
  O         0.1679999977        9.5659999847        1.3350000381
  O         0.3829999864       10.2030000687        7.3410000801
  O         1.7159999609        5.2859997749        2.5959999561
  O         1.2020000219        5.2880001068        7.8740000725
  O         1.8480000496        7.1760001183        5.0320000648
  O         1.5349999666        7.2080001831       10.9739999771
  O         2.6040000916        2.1319999695        4.3470001221
  O         2.3889999390        2.3650000095       10.2539997101
  O         3.2839999199        8.6730003357        4.2630000114
  O         3.2560000420        8.4020004272        9.9750003815
  O         4.5250000954        1.1160000563        3.5309998989
  O         4.1820001602        1.1339999437        9.6610002518
  O         4.3330001831       11.3620004654        0.9120000005
  O         4.5349998474       11.4069995880        6.6599998474
  O         5.6240000725        4.0339999199        1.4179999828
  O         5.4860000610        3.5620000362        7.1420001984
  O         6.2769999504       10.2690000534        1.6299999952
  O         6.4149999619       10.3149995804        7.3239998817
  O         7.6020002365        5.0170001984        1.8609999418
  O         7.1659998894        4.8720002174        7.8140001297
  O         7.5939998627        7.1820001602        4.8969998360
  O         7.6370000839        7.4749999046       10.5520000458
  O         9.1590003967        2.3740000725        4.4210000038
  O         8.6700000763        2.1600000858       10.4890003204
  O         9.2620000839        8.4639997482        4.0910000801
  O         9.6359996796        8.1420001984        9.8509998322
  O        10.7500000000        0.8989999890        3.6329998970
  O        10.4069995880        1.1239999533        9.5190000534
  O        10.6040000916       11.0329999924        0.6340000033
  O        10.6879997253       11.2159996033        6.3769998550
  O         0.0900000036        4.1189999580        1.4019999504
  O        11.5850000381        4.0229997635        7.3229999542
